* RELOC.INP:
*--- input file selection
* cross correlation diff times: (not used in this test)
#dt.cc
*
*catalog P & S diff times:
dt.ct
*
* event file:
codex_17.dat
*
* station file:
codex_s.dat
*
*--- output file selection
* original locations:
/home/carlos/Escritorio/codex_17.loc
* relocations:
/home/carlos/Escritorio/codex_17.reloc
* station information:
/home/carlos/Escritorio/codex_17.sta
* residual information:
*codex_17.res

* source paramater information:
*codex_17.src

*
*--- data type selection: 
* IDAT:  0 = synthetics; 1= cross corr; 2= catalog; 3= cross & cat 
* IPHA: 1= P; 2= S; 3= P&S
* DIST:max dist [km] between cluster centroid and station 
* IDAT   IPHA   DIST
    2     1     400
*
*--- event clustering:
* OBSCC:    min # of obs/pair for crosstime data (0= no clustering)
* OBSCT:    min # of obs/pair for network data (0= no clustering
* OBSCC  OBSCT    
     2     2      
*
*--- solution control:
* ISTART:  	1 = from single source; 2 = from network sources
* ISOLV:	1 = SVD, 2=lsqr
* NSET:      	number of sets of iteration with specifications following
*  ISTART  ISOLV  NSET
    1        2      2
*
*--- data weighting and re-weighting: 
* NITER: 		last iteration to use the following weights
* WTCCP, WTCCS:		weight cross P, S 
* WTCTP, WTCTS:		weight catalog P, S 
* WRCC, WRCT:		residual threshold in sec for cross, catalog data 
* WDCC, WDCT:  		max dist [km] between cross, catalog linked pairs
* DAMP:    		damping (for lsqr only) 
*       ---  CROSS DATA ----- ----CATALOG DATA ----
* NITER WTCCP WTCCS WRCC WDCC WTCTP WTCTS WRCT WDCT DAMP
  5      -9     -9   -9   -9   1.0    -9  -9    -9   20
  5      -9     -9   -9   -9   1.0    -9   5     8   20
*
*--- 1D model:
* NLAY:		number of model layers  
* RATIO:	vp/vs ratio 
* TOP:		depths of top of layer (km) 
* VEL: 		layer velocities (km/s)
* NLAY  RATIO 
   7     1.73
*['Colima', 'Model', '(Z.JImenez', '1995)']. Depth to top, velocity
* TOP 
0.00 2.00 4.00 6.00 12.00 18.00 35.00 
* VEL
1.90 3.40 3.80 5.90 6.00 7.40 8.1 
*
*--- event selection:
* CID: 	cluster to be relocated (0 = all)
* ID:	ids of event to be relocated (8 per line)
* CID    
    0      
* ID